<?xml version="1.0" encoding="UTF-8"?>

<!-- generated on 2024-12-28 16:54:23 by Eclipse SUMO netedit Version 1.21.0
<neteditConfiguration xmlns:xsi="http://www.w3.org/2001/XMLSchema-instance" xsi:noNamespaceSchemaLocation="http://sumo.dlr.de/xsd/neteditConfiguration.xsd">

    <input>
        <sumo-net-file value="C:\Users\USER\Desktop\sumo_project\simulation\sumo.net.xml"/>
    </input>

    <output>
        <output-file value="C:\Users\USER\Desktop\sumo_project\simulation\sumo.net.xml"/>
    </output>

    <processing>
        <geometry.min-radius.fix.railways value="false"/>
        <geometry.max-grade.fix value="false"/>
        <offset.disable-normalization value="true"/>
        <lefthand value="0"/>
    </processing>

    <junctions>
        <no-turnarounds value="true"/>
        <junctions.corner-detail value="5"/>
        <junctions.limit-turn-speed value="5.50"/>
        <rectangular-lane-cut value="0"/>
    </junctions>

    <pedestrian>
        <walkingareas value="0"/>
    </pedestrian>

</neteditConfiguration>
-->

<net version="1.20" junctionCornerDetail="5" limitTurnSpeed="5.50" xmlns:xsi="http://www.w3.org/2001/XMLSchema-instance" xsi:noNamespaceSchemaLocation="http://sumo.dlr.de/xsd/net_file.xsd">

    <location netOffset="0.00,0.00" convBoundary="-129.85,14.00,43.33,40.39" origBoundary="-10000000000.00,-10000000000.00,10000000000.00,10000000000.00" projParameter="!"/>

    <edge id=":J1_0" function="internal">
        <lane id=":J1_0_0" index="0" speed="10.00" length="9.27" shape="-20.40,6.36 -11.09,6.41"/>
        <lane id=":J1_0_1" index="1" speed="20.00" length="9.27" shape="-20.41,9.56 -11.13,9.61"/>
        <lane id=":J1_0_2" index="2" speed="30.00" length="9.27" shape="-20.42,12.76 -11.17,12.81"/>
    </edge>
    <edge id=":J1_3" function="internal">
        <lane id=":J1_3_0" index="0" speed="13.50" length="9.25" shape="-19.39,16.51 -17.11,14.95 -15.52,13.78 -13.81,13.04 -11.17,12.81"/>
    </edge>

    <edge id="E0" from="J0" to="J1" priority="-1" shape="-129.85,14.00 -12.69,14.39">
        <lane id="E0_0" index="0" speed="10.00" length="109.43" shape="-129.82,6.00 -20.40,6.36"/>
        <lane id="E0_1" index="1" speed="20.00" length="109.43" shape="-129.83,9.20 -20.41,9.56"/>
        <lane id="E0_2" index="2" speed="30.00" length="109.43" shape="-129.84,12.40 -20.42,12.76"/>
    </edge>
    <edge id="E1" from="J1" to="J2" priority="-1" shape="-12.69,14.39 43.33,15.06">
        <lane id="E1_0" index="0" speed="10.00" length="54.52" shape="-11.09,6.41 43.43,7.06"/>
        <lane id="E1_1" index="1" speed="20.00" length="54.52" shape="-11.13,9.61 43.39,10.26"/>
        <lane id="E1_2" index="2" speed="30.00" length="54.52" shape="-11.17,12.81 43.35,13.46"/>
    </edge>
    <edge id="E2" from="J3" to="J1" priority="-1" shape="-56.47,40.39 -12.69,14.39">
        <lane id="E2_0" index="0" speed="13.89" length="44.07" shape="-57.29,39.01 -19.39,16.51"/>
    </edge>

    <tlLogic id="feux" type="static" programID="0" offset="0">
        <phase duration="42" state="GGGr"/>
        <phase duration="42" state="GGGG"/>
        <phase duration="42" state="GGGy"/>
    </tlLogic>

    <junction id="J0" type="dead_end" x="-129.85" y="14.00" incLanes="" intLanes="" shape="-129.85,14.00 -129.82,4.40"/>
    <junction id="J1" type="traffic_light" x="-12.59" y="14.81" incLanes="E0_0 E0_1 E0_2 E2_0" intLanes=":J1_0_0 :J1_0_1 :J1_0_2 :J1_3_0" shape="-11.19,14.41 -11.08,4.81 -20.39,4.76 -20.42,14.36 -20.21,15.14 -18.58,17.89 -16.01,16.05 -15.10,15.35 -14.14,14.82 -12.91,14.50">
        <request index="0" response="0000" foes="1000" cont="0"/>
        <request index="1" response="0000" foes="1000" cont="0"/>
        <request index="2" response="0000" foes="1000" cont="0"/>
        <request index="3" response="0111" foes="0111" cont="0"/>
    </junction>
    <junction id="J2" type="dead_end" x="43.33" y="15.06" incLanes="E1_0 E1_1 E1_2" intLanes="" shape="43.44,5.46 43.33,15.06"/>
    <junction id="J3" type="dead_end" x="-56.47" y="40.39" incLanes="" intLanes="" shape="-56.47,40.39 -58.10,37.64"/>

    <connection from="E0" to="E1" fromLane="0" toLane="0" via=":J1_0_0" tl="feux" linkIndex="0" dir="s" state="O"/>
    <connection from="E0" to="E1" fromLane="1" toLane="1" via=":J1_0_1" tl="feux" linkIndex="1" dir="s" state="O"/>
    <connection from="E0" to="E1" fromLane="2" toLane="2" via=":J1_0_2" tl="feux" linkIndex="2" dir="s" state="O"/>
    <connection from="E2" to="E1" fromLane="0" toLane="2" via=":J1_3_0" tl="feux" linkIndex="3" dir="s" state="o"/>

    <connection from=":J1_0" to="E1" fromLane="0" toLane="0" dir="s" state="M"/>
    <connection from=":J1_0" to="E1" fromLane="1" toLane="1" dir="s" state="M"/>
    <connection from=":J1_0" to="E1" fromLane="2" toLane="2" dir="s" state="M"/>
    <connection from=":J1_3" to="E1" fromLane="0" toLane="2" dir="s" state="M"/>

</net>
